[General]

include ../Parameters/Castalia.ini

sim-time-limit = 70s

SN.field_x = 100                                   
SN.field_y = 100
                       
SN.numNodes = 15
SN.deployment = "uniform"  

SN.node[*].Communication.Radio.RadioParametersFile = "../Parameters/Radio/CC2420.txt"

SN.wirelessChannel.onlyStaticNodes = false
SN.wirelessChannel.sigma = 0
SN.wirelessChannel.bidirectionalSigma = 0

SN.node[0..5].MobilityManagerName = "RandomWpMobilityManager"
SN.node[0..5].MobilityManager.updateInterval = 10

SN.node[*].ApplicationName = "ThroughputTest"
SN.node[*].Application.packet_rate = 0.33


SN.node[*].Communication.MACProtocolName = "TunableMAC"
SN.node[*].Communication.RoutingProtocolName = "AodvRouting"

